28
59.991600759689675
C 4.0742 0.6551 -0.1712
C 3.3517 1.1129 0.9290
C 2.0355 0.6898 1.1256
C 1.4253 -0.1946 0.2231
C 2.1665 -0.6486 -0.8785
C 3.4827 -0.2254 -1.0750
C 0.0392 -0.6425 0.4316
C -1.0792 0.0565 -0.1083
C -0.9636 1.2329 -0.8863
C -2.0853 1.8891 -1.3978
C -3.3550 1.3873 -1.1457
C -3.5027 0.2301 -0.3826
C -2.3842 -0.4415 0.1390
C -2.5554 -1.6045 0.9044
C -1.4593 -2.2830 1.4292
C -0.1741 -1.8055 1.1943
H 5.0987 0.9844 -0.3242
H 3.8115 1.7995 1.6350
H 1.4804 1.0549 1.9874
H 1.7143 -1.3352 -1.5915
H 4.0447 -0.5837 -1.9335
H 0.0162 1.6542 -1.1036
H -1.9615 2.7907 -1.9917
H -4.2308 1.8942 -1.5414
H -4.5062 -0.1469 -0.1964
H -3.5528 -1.9933 1.0989
H -1.6065 -3.1828 2.0204
H 0.6757 -2.3443 1.6097
