109
243.538385853
C -0.1638 11.8183 -2.1153
C 0.7096 10.8381 -2.5812
C 0.5808 9.5206 -2.1422
C -0.4277 9.1628 -1.2301
C -0.5624 7.7693 -0.7999
C 0.3226 7.2164 0.1304
C 0.2582 5.8524 0.4503
C -0.6825 4.9878 -0.1439
C -0.6552 3.5284 0.1106
N 0.4130 3.0520 0.7438
C 0.5548 1.7318 0.7513
N 1.8276 1.2030 1.1657
C 2.7736 1.8931 1.9335
C 2.6916 3.1003 2.6568
C 3.8261 3.5750 3.3181
C 5.0228 2.8704 3.2660
C 5.1013 1.6607 2.5730
C 3.9581 1.1535 1.9136
C 3.7044 -0.0424 1.1845
C 4.5044 -1.1431 0.8527
C 3.9917 -2.2324 0.1399
C 4.5574 -3.4648 -0.2993
C 5.8537 -4.0171 -0.2023
C 6.1198 -5.2755 -0.7490
C 5.1120 -5.9903 -1.3832
C 3.8181 -5.4656 -1.4911
C 3.5461 -4.2011 -0.9316
N 2.3978 -3.4041 -0.9392
C 1.1489 -3.7566 -1.5322
C 0.4523 -2.8218 -2.3084
C -0.7797 -3.1599 -2.8710
C -1.3196 -4.4263 -2.6574
C -0.6289 -5.3647 -1.8909
C 0.6123 -5.0354 -1.3368
C 2.6625 -2.2047 -0.2715
C 1.8477 -1.1127 0.0596
C 2.3695 -0.0300 0.7812
N -0.3876 0.8949 0.3170
C -1.4846 1.4470 -0.2104
N -2.5535 0.5636 -0.6211
C -3.6244 0.9020 -1.4607
C -3.9903 2.1090 -2.0941
C -5.1083 2.1331 -2.9315
C -5.8563 0.9875 -3.1534
C -5.5008 -0.2127 -2.5308
C -4.3824 -0.2565 -1.6682
C -3.8067 -1.2973 -0.8897
C -4.1452 -2.6443 -0.6944
C -3.4037 -3.4709 0.1583
C -3.4845 -4.8521 0.4940
C -4.3563 -5.8890 0.0901
C -4.2121 -7.1737 0.6185
C -3.2256 -7.4314 1.5626
C -2.3519 -6.4223 1.9808
C -2.4641 -5.1362 1.4084
N -1.7479 -3.9511 1.6152
C -0.6043 -3.8135 2.4601
C 0.3794 -4.8126 2.4903
C 1.4908 -4.6787 3.3256
C 1.6330 -3.5479 4.1266
C 0.6601 -2.5471 4.0971
C -0.4582 -2.6807 3.2699
C -2.3263 -2.9286 0.8546
C -1.9614 -1.5910 0.6463
C -2.6931 -0.7787 -0.2346
N -1.6202 2.7648 -0.3979
C -1.5908 5.5733 -1.0425
C -1.5364 6.9379 -1.3655
C -1.2978 10.1601 -0.7677
C -1.1642 11.4810 -1.2055
H -0.0572 12.8431 -2.4638
H 1.4897 11.1004 -3.2938
H 1.2635 8.7622 -2.5201
H 1.0836 7.8389 0.5959
H 0.9846 5.4666 1.1627
H 1.7642 3.6632 2.7198
H 3.7769 4.5088 3.8744
H 5.9031 3.2556 3.7779
H 6.0382 1.1086 2.5529
H 5.5489 -1.1552 1.1615
H 6.6458 -3.4574 0.2870
H 7.1197 -5.6945 -0.6771
H 5.3302 -6.9652 -1.8112
H 3.0570 -6.0390 -2.0169
H 0.8638 -1.8363 -2.5110
H -1.3242 -2.4260 -3.4606
H -2.2997 -4.6798 -3.0533
H -1.0700 -6.3407 -1.7079
H 1.1127 -5.7670 -0.7098
H 0.8063 -1.1183 -0.2415
H -3.4197 3.0194 -1.9596
H -5.3882 3.0711 -3.4138
H -6.7166 1.0168 -3.8159
H -6.0998 -1.1068 -2.7085
H -4.9966 -3.0626 -1.2251
H -5.1467 -5.6886 -0.6311
H -4.8887 -7.9673 0.3062
H -3.1368 -8.4262 1.9924
H -1.6107 -6.6478 2.7447
H 0.3187 -5.6876 1.8492
H 2.2528 -5.4582 3.3495
H 2.4982 -3.4415 4.7787
H 0.7662 -1.6699 4.7291
H -1.2182 -1.9039 3.3072
H -1.0946 -1.1912 1.1591
H -2.3398 4.9655 -1.5369
H -2.2320 7.3370 -2.1003
H -2.0835 9.9062 -0.0580
H -1.8443 12.2447 -0.8338
